<?xml version="1.0" encoding="UTF-8"?>

<!-- generated on 2026-04-12T10:58:58.584880+05:30 by Eclipse SUMO netgenerate 1.26.0
<netgenerateConfiguration xmlns:xsi="http://www.w3.org/2001/XMLSchema-instance" xsi:noNamespaceSchemaLocation="http://sumo.dlr.de/xsd/netgenerateConfiguration.xsd">

    <grid_network>
        <grid value="true"/>
        <grid.length value="150"/>
        <grid.x-number value="6"/>
        <grid.y-number value="6"/>
    </grid_network>

    <output>
        <output-file value="network.net.xml"/>
    </output>

    <building_defaults>
        <default.lanenumber value="2"/>
    </building_defaults>

</netgenerateConfiguration>
-->

<net version="1.20" junctionCornerDetail="5" limitTurnSpeed="5.50" xmlns:xsi="http://www.w3.org/2001/XMLSchema-instance" xsi:noNamespaceSchemaLocation="http://sumo.dlr.de/xsd/net_file.xsd">

    <location netOffset="0.00,0.00" convBoundary="0.00,0.00,750.00,750.00" origBoundary="0.00,0.00,750.00,750.00" projParameter="!"/>

    <edge id=":A0_0" function="internal">
        <lane id=":A0_0_0" index="0" speed="8.96" length="18.06" shape="-4.80,6.40 -4.10,1.50 -2.00,-2.00 1.50,-4.10 6.40,-4.80"/>
        <lane id=":A0_0_1" index="1" speed="7.66" length="12.90" shape="-1.60,6.40 -1.10,2.90 0.40,0.40 2.90,-1.10 6.40,-1.60"/>
    </edge>
    <edge id=":A0_2" function="internal">
        <lane id=":A0_2_0" index="0" speed="3.90" length="2.58" shape="6.40,4.80 5.70,4.90 5.20,5.20 4.90,5.70 4.80,6.40"/>
        <lane id=":A0_2_1" index="1" speed="6.08" length="7.74" shape="6.40,1.60 4.30,1.90 2.80,2.80 1.90,4.30 1.60,6.40"/>
    </edge>
    <edge id=":A1_0" function="internal">
        <lane id=":A1_0_0" index="0" speed="13.89" length="20.80" shape="-4.80,160.40 -4.80,139.60"/>
        <lane id=":A1_0_1" index="1" speed="13.89" length="20.80" shape="-1.60,160.40 -1.60,139.60"/>
    </edge>
    <edge id=":A1_2" function="internal">
        <lane id=":A1_2_0" index="0" speed="9.26" length="5.01" shape="-1.60,160.40 -0.89,155.44"/>
    </edge>
    <edge id=":A1_3" function="internal">
        <lane id=":A1_3_0" index="0" speed="3.65" length="1.44" shape="-1.60,160.40 -0.80,159.20"/>
    </edge>
    <edge id=":A1_11" function="internal">
        <lane id=":A1_11_0" index="0" speed="9.26" length="14.34" shape="-0.89,155.44 -0.85,155.15 1.40,151.40 5.15,149.15 10.40,148.40"/>
    </edge>
    <edge id=":A1_12" function="internal">
        <lane id=":A1_12_0" index="0" speed="3.65" length="3.23" shape="-0.80,159.20 0.00,158.80 0.80,159.20 1.60,160.40"/>
    </edge>
    <edge id=":A1_4" function="internal">
        <lane id=":A1_4_0" index="0" speed="6.51" length="9.03" shape="10.40,154.80 7.95,155.15 6.20,156.20 5.15,157.95 4.80,160.40"/>
    </edge>
    <edge id=":A1_5" function="internal">
        <lane id=":A1_5_0" index="0" speed="9.26" length="19.35" shape="10.40,151.60 5.15,150.85 1.40,148.60 -0.85,144.85 -1.60,139.60"/>
    </edge>
    <edge id=":A1_6" function="internal">
        <lane id=":A1_6_0" index="0" speed="3.65" length="4.67" shape="10.40,151.60 9.20,150.80 8.80,150.00 9.20,149.20 10.40,148.40"/>
    </edge>
    <edge id=":A1_7" function="internal">
        <lane id=":A1_7_0" index="0" speed="6.51" length="9.03" shape="4.80,139.60 5.15,142.05 6.20,143.80 7.95,144.85 10.40,145.20"/>
    </edge>
    <edge id=":A1_8" function="internal">
        <lane id=":A1_8_0" index="0" speed="13.89" length="20.80" shape="4.80,139.60 4.80,160.40"/>
        <lane id=":A1_8_1" index="1" speed="13.89" length="20.80" shape="1.60,139.60 1.60,160.40"/>
    </edge>
    <edge id=":A1_10" function="internal">
        <lane id=":A1_10_0" index="0" speed="3.65" length="1.44" shape="1.60,139.60 0.80,140.80"/>
    </edge>
    <edge id=":A1_13" function="internal">
        <lane id=":A1_13_0" index="0" speed="3.65" length="3.23" shape="0.80,140.80 0.00,141.20 -0.80,140.80 -1.60,139.60"/>
    </edge>
    <edge id=":A2_0" function="internal">
        <lane id=":A2_0_0" index="0" speed="13.89" length="20.80" shape="-4.80,310.40 -4.80,289.60"/>
        <lane id=":A2_0_1" index="1" speed="13.89" length="20.80" shape="-1.60,310.40 -1.60,289.60"/>
    </edge>
    <edge id=":A2_2" function="internal">
        <lane id=":A2_2_0" index="0" speed="9.26" length="5.01" shape="-1.60,310.40 -0.89,305.44"/>
    </edge>
    <edge id=":A2_3" function="internal">
        <lane id=":A2_3_0" index="0" speed="3.65" length="1.44" shape="-1.60,310.40 -0.80,309.20"/>
    </edge>
    <edge id=":A2_11" function="internal">
        <lane id=":A2_11_0" index="0" speed="9.26" length="14.34" shape="-0.89,305.44 -0.85,305.15 1.40,301.40 5.15,299.15 10.40,298.40"/>
    </edge>
    <edge id=":A2_12" function="internal">
        <lane id=":A2_12_0" index="0" speed="3.65" length="3.23" shape="-0.80,309.20 0.00,308.80 0.80,309.20 1.60,310.40"/>
    </edge>
    <edge id=":A2_4" function="internal">
        <lane id=":A2_4_0" index="0" speed="6.51" length="9.03" shape="10.40,304.80 7.95,305.15 6.20,306.20 5.15,307.95 4.80,310.40"/>
    </edge>
    <edge id=":A2_5" function="internal">
        <lane id=":A2_5_0" index="0" speed="9.26" length="19.35" shape="10.40,301.60 5.15,300.85 1.40,298.60 -0.85,294.85 -1.60,289.60"/>
    </edge>
    <edge id=":A2_6" function="internal">
        <lane id=":A2_6_0" index="0" speed="3.65" length="4.67" shape="10.40,301.60 9.20,300.80 8.80,300.00 9.20,299.20 10.40,298.40"/>
    </edge>
    <edge id=":A2_7" function="internal">
        <lane id=":A2_7_0" index="0" speed="6.51" length="9.03" shape="4.80,289.60 5.15,292.05 6.20,293.80 7.95,294.85 10.40,295.20"/>
    </edge>
    <edge id=":A2_8" function="internal">
        <lane id=":A2_8_0" index="0" speed="13.89" length="20.80" shape="4.80,289.60 4.80,310.40"/>
        <lane id=":A2_8_1" index="1" speed="13.89" length="20.80" shape="1.60,289.60 1.60,310.40"/>
    </edge>
    <edge id=":A2_10" function="internal">
        <lane id=":A2_10_0" index="0" speed="3.65" length="1.44" shape="1.60,289.60 0.80,290.80"/>
    </edge>
    <edge id=":A2_13" function="internal">
        <lane id=":A2_13_0" index="0" speed="3.65" length="3.23" shape="0.80,290.80 0.00,291.20 -0.80,290.80 -1.60,289.60"/>
    </edge>
    <edge id=":A3_0" function="internal">
        <lane id=":A3_0_0" index="0" speed="13.89" length="20.80" shape="-4.80,460.40 -4.80,439.60"/>
        <lane id=":A3_0_1" index="1" speed="13.89" length="20.80" shape="-1.60,460.40 -1.60,439.60"/>
    </edge>
    <edge id=":A3_2" function="internal">
        <lane id=":A3_2_0" index="0" speed="9.26" length="5.01" shape="-1.60,460.40 -0.89,455.44"/>
    </edge>
    <edge id=":A3_3" function="internal">
        <lane id=":A3_3_0" index="0" speed="3.65" length="1.44" shape="-1.60,460.40 -0.80,459.20"/>
    </edge>
    <edge id=":A3_11" function="internal">
        <lane id=":A3_11_0" index="0" speed="9.26" length="14.34" shape="-0.89,455.44 -0.85,455.15 1.40,451.40 5.15,449.15 10.40,448.40"/>
    </edge>
    <edge id=":A3_12" function="internal">
        <lane id=":A3_12_0" index="0" speed="3.65" length="3.23" shape="-0.80,459.20 0.00,458.80 0.80,459.20 1.60,460.40"/>
    </edge>
    <edge id=":A3_4" function="internal">
        <lane id=":A3_4_0" index="0" speed="6.51" length="9.03" shape="10.40,454.80 7.95,455.15 6.20,456.20 5.15,457.95 4.80,460.40"/>
    </edge>
    <edge id=":A3_5" function="internal">
        <lane id=":A3_5_0" index="0" speed="9.26" length="19.35" shape="10.40,451.60 5.15,450.85 1.40,448.60 -0.85,444.85 -1.60,439.60"/>
    </edge>
    <edge id=":A3_6" function="internal">
        <lane id=":A3_6_0" index="0" speed="3.65" length="4.67" shape="10.40,451.60 9.20,450.80 8.80,450.00 9.20,449.20 10.40,448.40"/>
    </edge>
    <edge id=":A3_7" function="internal">
        <lane id=":A3_7_0" index="0" speed="6.51" length="9.03" shape="4.80,439.60 5.15,442.05 6.20,443.80 7.95,444.85 10.40,445.20"/>
    </edge>
    <edge id=":A3_8" function="internal">
        <lane id=":A3_8_0" index="0" speed="13.89" length="20.80" shape="4.80,439.60 4.80,460.40"/>
        <lane id=":A3_8_1" index="1" speed="13.89" length="20.80" shape="1.60,439.60 1.60,460.40"/>
    </edge>
    <edge id=":A3_10" function="internal">
        <lane id=":A3_10_0" index="0" speed="3.65" length="1.44" shape="1.60,439.60 0.80,440.80"/>
    </edge>
    <edge id=":A3_13" function="internal">
        <lane id=":A3_13_0" index="0" speed="3.65" length="3.23" shape="0.80,440.80 0.00,441.20 -0.80,440.80 -1.60,439.60"/>
    </edge>
    <edge id=":A4_0" function="internal">
        <lane id=":A4_0_0" index="0" speed="13.89" length="20.80" shape="-4.80,610.40 -4.80,589.60"/>
        <lane id=":A4_0_1" index="1" speed="13.89" length="20.80" shape="-1.60,610.40 -1.60,589.60"/>
    </edge>
    <edge id=":A4_2" function="internal">
        <lane id=":A4_2_0" index="0" speed="9.26" length="5.01" shape="-1.60,610.40 -0.89,605.44"/>
    </edge>
    <edge id=":A4_3" function="internal">
        <lane id=":A4_3_0" index="0" speed="3.65" length="1.44" shape="-1.60,610.40 -0.80,609.20"/>
    </edge>
    <edge id=":A4_11" function="internal">
        <lane id=":A4_11_0" index="0" speed="9.26" length="14.34" shape="-0.89,605.44 -0.85,605.15 1.40,601.40 5.15,599.15 10.40,598.40"/>
    </edge>
    <edge id=":A4_12" function="internal">
        <lane id=":A4_12_0" index="0" speed="3.65" length="3.23" shape="-0.80,609.20 0.00,608.80 0.80,609.20 1.60,610.40"/>
    </edge>
    <edge id=":A4_4" function="internal">
        <lane id=":A4_4_0" index="0" speed="6.51" length="9.03" shape="10.40,604.80 7.95,605.15 6.20,606.20 5.15,607.95 4.80,610.40"/>
    </edge>
    <edge id=":A4_5" function="internal">
        <lane id=":A4_5_0" index="0" speed="9.26" length="19.35" shape="10.40,601.60 5.15,600.85 1.40,598.60 -0.85,594.85 -1.60,589.60"/>
    </edge>
    <edge id=":A4_6" function="internal">
        <lane id=":A4_6_0" index="0" speed="3.65" length="4.67" shape="10.40,601.60 9.20,600.80 8.80,600.00 9.20,599.20 10.40,598.40"/>
    </edge>
    <edge id=":A4_7" function="internal">
        <lane id=":A4_7_0" index="0" speed="6.51" length="9.03" shape="4.80,589.60 5.15,592.05 6.20,593.80 7.95,594.85 10.40,595.20"/>
    </edge>
    <edge id=":A4_8" function="internal">
        <lane id=":A4_8_0" index="0" speed="13.89" length="20.80" shape="4.80,589.60 4.80,610.40"/>
        <lane id=":A4_8_1" index="1" speed="13.89" length="20.80" shape="1.60,589.60 1.60,610.40"/>
    </edge>
    <edge id=":A4_10" function="internal">
        <lane id=":A4_10_0" index="0" speed="3.65" length="1.44" shape="1.60,589.60 0.80,590.80"/>
    </edge>
    <edge id=":A4_13" function="internal">
        <lane id=":A4_13_0" index="0" speed="3.65" length="3.23" shape="0.80,590.80 0.00,591.20 -0.80,590.80 -1.60,589.60"/>
    </edge>
    <edge id=":A5_0" function="internal">
        <lane id=":A5_0_0" index="0" speed="8.96" length="18.06" shape="6.40,754.80 1.50,754.10 -2.00,752.00 -4.10,748.50 -4.80,743.60"/>
        <lane id=":A5_0_1" index="1" speed="7.66" length="12.90" shape="6.40,751.60 2.90,751.10 0.40,749.60 -1.10,747.10 -1.60,743.60"/>
    </edge>
    <edge id=":A5_2" function="internal">
        <lane id=":A5_2_0" index="0" speed="3.90" length="2.58" shape="4.80,743.60 4.90,744.30 5.20,744.80 5.70,745.10 6.40,745.20"/>
        <lane id=":A5_2_1" index="1" speed="6.08" length="7.74" shape="1.60,743.60 1.90,745.70 2.80,747.20 4.30,748.10 6.40,748.40"/>
    </edge>
    <edge id=":B0_0" function="internal">
        <lane id=":B0_0_0" index="0" speed="6.51" length="9.03" shape="145.20,10.40 144.85,7.95 143.80,6.20 142.05,5.15 139.60,4.80"/>
    </edge>
    <edge id=":B0_1" function="internal">
        <lane id=":B0_1_0" index="0" speed="9.26" length="19.35" shape="148.40,10.40 149.15,5.15 151.40,1.40 155.15,-0.85 160.40,-1.60"/>
    </edge>
    <edge id=":B0_2" function="internal">
        <lane id=":B0_2_0" index="0" speed="3.65" length="4.67" shape="148.40,10.40 149.20,9.20 150.00,8.80 150.80,9.20 151.60,10.40"/>
    </edge>
    <edge id=":B0_3" function="internal">
        <lane id=":B0_3_0" index="0" speed="6.51" length="9.03" shape="160.40,4.80 157.95,5.15 156.20,6.20 155.15,7.95 154.80,10.40"/>
    </edge>
    <edge id=":B0_4" function="internal">
        <lane id=":B0_4_0" index="0" speed="13.89" length="20.80" shape="160.40,4.80 139.60,4.80"/>
        <lane id=":B0_4_1" index="1" speed="13.89" length="20.80" shape="160.40,1.60 139.60,1.60"/>
    </edge>
    <edge id=":B0_6" function="internal">
        <lane id=":B0_6_0" index="0" speed="3.65" length="1.44" shape="160.40,1.60 159.20,0.80"/>
    </edge>
    <edge id=":B0_11" function="internal">
        <lane id=":B0_11_0" index="0" speed="3.65" length="3.23" shape="159.20,0.80 158.80,0.00 159.20,-0.80 160.40,-1.60"/>
    </edge>
    <edge id=":B0_7" function="internal">
        <lane id=":B0_7_0" index="0" speed="13.89" length="20.80" shape="139.60,-4.80 160.40,-4.80"/>
        <lane id=":B0_7_1" index="1" speed="13.89" length="20.80" shape="139.60,-1.60 160.40,-1.60"/>
    </edge>
    <edge id=":B0_9" function="internal">
        <lane id=":B0_9_0" index="0" speed="9.26" length="5.01" shape="139.60,-1.60 144.56,-0.89"/>
    </edge>
    <edge id=":B0_10" function="internal">
        <lane id=":B0_10_0" index="0" speed="3.65" length="1.44" shape="139.60,-1.60 140.80,-0.80"/>
    </edge>
    <edge id=":B0_12" function="internal">
        <lane id=":B0_12_0" index="0" speed="9.26" length="14.34" shape="144.56,-0.89 144.85,-0.85 148.60,1.40 150.85,5.15 151.60,10.40"/>
    </edge>
    <edge id=":B0_13" function="internal">
        <lane id=":B0_13_0" index="0" speed="3.65" length="3.23" shape="140.80,-0.80 141.20,0.00 140.80,0.80 139.60,1.60"/>
    </edge>
    <edge id=":B1_0" function="internal">
        <lane id=":B1_0_0" index="0" speed="6.51" length="9.03" shape="145.20,160.40 144.85,157.95 143.80,156.20 142.05,155.15 139.60,154.80"/>
    </edge>
    <edge id=":B1_1" function="internal">
        <lane id=":B1_1_0" index="0" speed="13.89" length="20.80" shape="145.20,160.40 145.20,139.60"/>
        <lane id=":B1_1_1" index="1" speed="13.89" length="20.80" shape="148.40,160.40 148.40,139.60"/>
    </edge>
    <edge id=":B1_3" function="internal">
        <lane id=":B1_3_0" index="0" speed="9.26" length="5.01" shape="148.40,160.40 149.11,155.44"/>
    </edge>
    <edge id=":B1_4" function="internal">
        <lane id=":B1_4_0" index="0" speed="3.65" length="1.44" shape="148.40,160.40 149.20,159.20"/>
    </edge>
    <edge id=":B1_20" function="internal">
        <lane id=":B1_20_0" index="0" speed="9.26" length="14.34" shape="149.11,155.44 149.15,155.15 151.40,151.40 155.15,149.15 160.40,148.40"/>
    </edge>
    <edge id=":B1_21" function="internal">
        <lane id=":B1_21_0" index="0" speed="3.65" length="3.23" shape="149.20,159.20 150.00,158.80 150.80,159.20 151.60,160.40"/>
    </edge>
    <edge id=":B1_5" function="internal">
        <lane id=":B1_5_0" index="0" speed="6.51" length="9.03" shape="160.40,154.80 157.95,155.15 156.20,156.20 155.15,157.95 154.80,160.40"/>
    </edge>
    <edge id=":B1_6" function="internal">
        <lane id=":B1_6_0" index="0" speed="13.89" length="20.80" shape="160.40,154.80 139.60,154.80"/>
        <lane id=":B1_6_1" index="1" speed="13.89" length="20.80" shape="160.40,151.60 139.60,151.60"/>
    </edge>
    <edge id=":B1_8" function="internal">
        <lane id=":B1_8_0" index="0" speed="9.26" length="19.35" shape="160.40,151.60 155.15,150.85 151.40,148.60 149.15,144.85 148.40,139.60"/>
    </edge>
    <edge id=":B1_9" function="internal">
        <lane id=":B1_9_0" index="0" speed="3.65" length="4.67" shape="160.40,151.60 159.20,150.80 158.80,150.00 159.20,149.20 160.40,148.40"/>
    </edge>
    <edge id=":B1_10" function="internal">
        <lane id=":B1_10_0" index="0" speed="6.51" length="9.03" shape="154.80,139.60 155.15,142.05 156.20,143.80 157.95,144.85 160.40,145.20"/>
    </edge>
    <edge id=":B1_11" function="internal">
        <lane id=":B1_11_0" index="0" speed="13.89" length="20.80" shape="154.80,139.60 154.80,160.40"/>
        <lane id=":B1_11_1" index="1" speed="13.89" length="20.80" shape="151.60,139.60 151.60,160.40"/>
    </edge>
    <edge id=":B1_13" function="internal">
        <lane id=":B1_13_0" index="0" speed="9.26" length="5.01" shape="151.60,139.60 150.89,144.56"/>
    </edge>
    <edge id=":B1_14" function="internal">
        <lane id=":B1_14_0" index="0" speed="3.65" length="1.44" shape="151.60,139.60 150.80,140.80"/>
    </edge>
    <edge id=":B1_22" function="internal">
        <lane id=":B1_22_0" index="0" speed="9.26" length="14.34" shape="150.89,144.56 150.85,144.85 148.60,148.60 144.85,150.85 139.60,151.60"/>
    </edge>
    <edge id=":B1_23" function="internal">
        <lane id=":B1_23_0" index="0" speed="3.65" length="3.23" shape="150.80,140.80 150.00,141.20 149.20,140.80 148.40,139.60"/>
    </edge>
    <edge id=":B1_15" function="internal">
        <lane id=":B1_15_0" index="0" speed="6.51" length="9.03" shape="139.60,145.20 142.05,144.85 143.80,143.80 144.85,142.05 145.20,139.60"/>
    </edge>
    <edge id=":B1_16" function="internal">
        <lane id=":B1_16_0" index="0" speed="13.89" length="20.80" shape="139.60,145.20 160.40,145.20"/>
        <lane id=":B1_16_1" index="1" speed="13.89" length="20.80" shape="139.60,148.40 160.40,148.40"/>
    </edge>
    <edge id=":B1_18" function="internal">
        <lane id=":B1_18_0" index="0" speed="9.26" length="19.35" shape="139.60,148.40 144.85,149.15 148.60,151.40 150.85,155.15 151.60,160.40"/>
    </edge>
    <edge id=":B1_19" function="internal">
        <lane id=":B1_19_0" index="0" speed="3.65" length="4.67" shape="139.60,148.40 140.80,149.20 141.20,150.00 140.80,150.80 139.60,151.60"/>
    </edge>
    <edge id=":B2_0" function="internal">
        <lane id=":B2_0_0" index="0" speed="6.51" length="9.03" shape="145.20,310.40 144.85,307.95 143.80,306.20 142.05,305.15 139.60,304.80"/>
    </edge>
    <edge id=":B2_1" function="internal">
        <lane id=":B2_1_0" index="0" speed="13.89" length="20.80" shape="145.20,310.40 145.20,289.60"/>
        <lane id=":B2_1_1" index="1" speed="13.89" length="20.80" shape="148.40,310.40 148.40,289.60"/>
    </edge>
    <edge id=":B2_3" function="internal">
        <lane id=":B2_3_0" index="0" speed="9.26" length="5.01" shape="148.40,310.40 149.11,305.44"/>
    </edge>
    <edge id=":B2_4" function="internal">
        <lane id=":B2_4_0" index="0" speed="3.65" length="1.44" shape="148.40,310.40 149.20,309.20"/>
    </edge>
    <edge id=":B2_20" function="internal">
        <lane id=":B2_20_0" index="0" speed="9.26" length="14.34" shape="149.11,305.44 149.15,305.15 151.40,301.40 155.15,299.15 160.40,298.40"/>
    </edge>
    <edge id=":B2_21" function="internal">
        <lane id=":B2_21_0" index="0" speed="3.65" length="3.23" shape="149.20,309.20 150.00,308.80 150.80,309.20 151.60,310.40"/>
    </edge>
    <edge id=":B2_5" function="internal">
        <lane id=":B2_5_0" index="0" speed="6.51" length="9.03" shape="160.40,304.80 157.95,305.15 156.20,306.20 155.15,307.95 154.80,310.40"/>
    </edge>
    <edge id=":B2_6" function="internal">
        <lane id=":B2_6_0" index="0" speed="13.89" length="20.80" shape="160.40,304.80 139.60,304.80"/>
        <lane id=":B2_6_1" index="1" speed="13.89" length="20.80" shape="160.40,301.60 139.60,301.60"/>
    </edge>
    <edge id=":B2_8" function="internal">
        <lane id=":B2_8_0" index="0" speed="9.26" length="19.35" shape="160.40,301.60 155.15,300.85 151.40,298.60 149.15,294.85 148.40,289.60"/>
    </edge>
    <edge id=":B2_9" function="internal">
        <lane id=":B2_9_0" index="0" speed="3.65" length="4.67" shape="160.40,301.60 159.20,300.80 158.80,300.00 159.20,299.20 160.40,298.40"/>
    </edge>
    <edge id=":B2_10" function="internal">
        <lane id=":B2_10_0" index="0" speed="6.51" length="9.03" shape="154.80,289.60 155.15,292.05 156.20,293.80 157.95,294.85 160.40,295.20"/>
    </edge>
    <edge id=":B2_11" function="internal">
        <lane id=":B2_11_0" index="0" speed="13.89" length="20.80" shape="154.80,289.60 154.80,310.40"/>
        <lane id=":B2_11_1" index="1" speed="13.89" length="20.80" shape="151.60,289.60 151.60,310.40"/>
    </edge>
    <edge id=":B2_13" function="internal">
        <lane id=":B2_13_0" index="0" speed="9.26" length="5.01" shape="151.60,289.60 150.89,294.56"/>
    </edge>
    <edge id=":B2_14" function="internal">
        <lane id=":B2_14_0" index="0" speed="3.65" length="1.44" shape="151.60,289.60 150.80,290.80"/>
    </edge>
    <edge id=":B2_22" function="internal">
        <lane id=":B2_22_0" index="0" speed="9.26" length="14.34" shape="150.89,294.56 150.85,294.85 148.60,298.60 144.85,300.85 139.60,301.60"/>
    </edge>
    <edge id=":B2_23" function="internal">
        <lane id=":B2_23_0" index="0" speed="3.65" length="3.23" shape="150.80,290.80 150.00,291.20 149.20,290.80 148.40,289.60"/>
    </edge>
    <edge id=":B2_15" function="internal">
        <lane id=":B2_15_0" index="0" speed="6.51" length="9.03" shape="139.60,295.20 142.05,294.85 143.80,293.80 144.85,292.05 145.20,289.60"/>
    </edge>
    <edge id=":B2_16" function="internal">
        <lane id=":B2_16_0" index="0" speed="13.89" length="20.80" shape="139.60,295.20 160.40,295.20"/>
        <lane id=":B2_16_1" index="1" speed="13.89" length="20.80" shape="139.60,298.40 160.40,298.40"/>
    </edge>
    <edge id=":B2_18" function="internal">
        <lane id=":B2_18_0" index="0" speed="9.26" length="19.35" shape="139.60,298.40 144.85,299.15 148.60,301.40 150.85,305.15 151.60,310.40"/>
    </edge>
    <edge id=":B2_19" function="internal">
        <lane id=":B2_19_0" index="0" speed="3.65" length="4.67" shape="139.60,298.40 140.80,299.20 141.20,300.00 140.80,300.80 139.60,301.60"/>
    </edge>
    <edge id=":B3_0" function="internal">
        <lane id=":B3_0_0" index="0" speed="6.51" length="9.03" shape="145.20,460.40 144.85,457.95 143.80,456.20 142.05,455.15 139.60,454.80"/>
    </edge>
    <edge id=":B3_1" function="internal">
        <lane id=":B3_1_0" index="0" speed="13.89" length="20.80" shape="145.20,460.40 145.20,439.60"/>
        <lane id=":B3_1_1" index="1" speed="13.89" length="20.80" shape="148.40,460.40 148.40,439.60"/>
    </edge>
    <edge id=":B3_3" function="internal">
        <lane id=":B3_3_0" index="0" speed="9.26" length="5.01" shape="148.40,460.40 149.11,455.44"/>
    </edge>
    <edge id=":B3_4" function="internal">
        <lane id=":B3_4_0" index="0" speed="3.65" length="1.44" shape="148.40,460.40 149.20,459.20"/>
    </edge>
    <edge id=":B3_20" function="internal">
        <lane id=":B3_20_0" index="0" speed="9.26" length="14.34" shape="149.11,455.44 149.15,455.15 151.40,451.40 155.15,449.15 160.40,448.40"/>
    </edge>
    <edge id=":B3_21" function="internal">
        <lane id=":B3_21_0" index="0" speed="3.65" length="3.23" shape="149.20,459.20 150.00,458.80 150.80,459.20 151.60,460.40"/>
    </edge>
    <edge id=":B3_5" function="internal">
        <lane id=":B3_5_0" index="0" speed="6.51" length="9.03" shape="160.40,454.80 157.95,455.15 156.20,456.20 155.15,457.95 154.80,460.40"/>
    </edge>
    <edge id=":B3_6" function="internal">
        <lane id=":B3_6_0" index="0" speed="13.89" length="20.80" shape="160.40,454.80 139.60,454.80"/>
        <lane id=":B3_6_1" index="1" speed="13.89" length="20.80" shape="160.40,451.60 139.60,451.60"/>
    </edge>
    <edge id=":B3_8" function="internal">
        <lane id=":B3_8_0" index="0" speed="9.26" length="19.35" shape="160.40,451.60 155.15,450.85 151.40,448.60 149.15,444.85 148.40,439.60"/>
    </edge>
    <edge id=":B3_9" function="internal">
        <lane id=":B3_9_0" index="0" speed="3.65" length="4.67" shape="160.40,451.60 159.20,450.80 158.80,450.00 159.20,449.20 160.40,448.40"/>
    </edge>
    <edge id=":B3_10" function="internal">
        <lane id=":B3_10_0" index="0" speed="6.51" length="9.03" shape="154.80,439.60 155.15,442.05 156.20,443.80 157.95,444.85 160.40,445.20"/>
    </edge>
    <edge id=":B3_11" function="internal">
        <lane id=":B3_11_0" index="0" speed="13.89" length="20.80" shape="154.80,439.60 154.80,460.40"/>
        <lane id=":B3_11_1" index="1" speed="13.89" length="20.80" shape="151.60,439.60 151.60,460.40"/>
    </edge>
    <edge id=":B3_13" function="internal">
        <lane id=":B3_13_0" index="0" speed="9.26" length="5.01" shape="151.60,439.60 150.89,444.56"/>
    </edge>
    <edge id=":B3_14" function="internal">
        <lane id=":B3_14_0" index="0" speed="3.65" length="1.44" shape="151.60,439.60 150.80,440.80"/>
    </edge>
    <edge id=":B3_22" function="internal">
        <lane id=":B3_22_0" index="0" speed="9.26" length="14.34" shape="150.89,444.56 150.85,444.85 148.60,448.60 144.85,450.85 139.60,451.60"/>
    </edge>
    <edge id=":B3_23" function="internal">
        <lane id=":B3_23_0" index="0" speed="3.65" length="3.23" shape="150.80,440.80 150.00,441.20 149.20,440.80 148.40,439.60"/>
    </edge>
    <edge id=":B3_15" function="internal">
        <lane id=":B3_15_0" index="0" speed="6.51" length="9.03" shape="139.60,445.20 142.05,444.85 143.80,443.80 144.85,442.05 145.20,439.60"/>
    </edge>
    <edge id=":B3_16" function="internal">
        <lane id=":B3_16_0" index="0" speed="13.89" length="20.80" shape="139.60,445.20 160.40,445.20"/>
        <lane id=":B3_16_1" index="1" speed="13.89" length="20.80" shape="139.60,448.40 160.40,448.40"/>
    </edge>
    <edge id=":B3_18" function="internal">
        <lane id=":B3_18_0" index="0" speed="9.26" length="19.35" shape="139.60,448.40 144.85,449.15 148.60,451.40 150.85,455.15 151.60,460.40"/>
    </edge>
    <edge id=":B3_19" function="internal">
        <lane id=":B3_19_0" index="0" speed="3.65" length="4.67" shape="139.60,448.40 140.80,449.20 141.20,450.00 140.80,450.80 139.60,451.60"/>
    </edge>
    <edge id=":B4_0" function="internal">
        <lane id=":B4_0_0" index="0" speed="6.51" length="9.03" shape="145.20,610.40 144.85,607.95 143.80,606.20 142.05,605.15 139.60,604.80"/>
    </edge>
    <edge id=":B4_1" function="internal">
        <lane id=":B4_1_0" index="0" speed="13.89" length="20.80" shape="145.20,610.40 145.20,589.60"/>
        <lane id=":B4_1_1" index="1" speed="13.89" length="20.80" shape="148.40,610.40 148.40,589.60"/>
    </edge>
    <edge id=":B4_3" function="internal">
        <lane id=":B4_3_0" index="0" speed="9.26" length="5.01" shape="148.40,610.40 149.11,605.44"/>
    </edge>
    <edge id=":B4_4" function="internal">
        <lane id=":B4_4_0" index="0" speed="3.65" length="1.44" shape="148.40,610.40 149.20,609.20"/>
    </edge>
    <edge id=":B4_20" function="internal">
        <lane id=":B4_20_0" index="0" speed="9.26" length="14.34" shape="149.11,605.44 149.15,605.15 151.40,601.40 155.15,599.15 160.40,598.40"/>
    </edge>
    <edge id=":B4_21" function="internal">
        <lane id=":B4_21_0" index="0" speed="3.65" length="3.23" shape="149.20,609.20 150.00,608.80 150.80,609.20 151.60,610.40"/>
    </edge>
    <edge id=":B4_5" function="internal">
        <lane id=":B4_5_0" index="0" speed="6.51" length="9.03" shape="160.40,604.80 157.95,605.15 156.20,606.20 155.15,607.95 154.80,610.40"/>
    </edge>
    <edge id=":B4_6" function="internal">
        <lane id=":B4_6_0" index="0" speed="13.89" length="20.80" shape="160.40,604.80 139.60,604.80"/>
        <lane id=":B4_6_1" index="1" speed="13.89" length="20.80" shape="160.40,601.60 139.60,601.60"/>
    </edge>
    <edge id=":B4_8" function="internal">
        <lane id=":B4_8_0" index="0" speed="9.26" length="19.35" shape="160.40,601.60 155.15,600.85 151.40,598.60 149.15,594.85 148.40,589.60"/>
    </edge>
    <edge id=":B4_9" function="internal">
        <lane id=":B4_9_0" index="0" speed="3.65" length="4.67" shape="160.40,601.60 159.20,600.80 158.80,600.00 159.20,599.20 160.40,598.40"/>
    </edge>
    <edge id=":B4_10" function="internal">
        <lane id=":B4_10_0" index="0" speed="6.51" length="9.03" shape="154.80,589.60 155.15,592.05 156.20,593.80 157.95,594.85 160.40,595.20"/>
    </edge>
    <edge id=":B4_11" function="internal">
        <lane id=":B4_11_0" index="0" speed="13.89" length="20.80" shape="154.80,589.60 154.80,610.40"/>
        <lane id=":B4_11_1" index="1" speed="13.89" length="20.80" shape="151.60,589.60 151.60,610.40"/>
    </edge>
    <edge id=":B4_13" function="internal">
        <lane id=":B4_13_0" index="0" speed="9.26" length="5.01" shape="151.60,589.60 150.89,594.56"/>
    </edge>
    <edge id=":B4_14" function="internal">
        <lane id=":B4_14_0" index="0" speed="3.65" length="1.44" shape="151.60,589.60 150.80,590.80"/>
    </edge>
    <edge id=":B4_22" function="internal">
        <lane id=":B4_22_0" index="0" speed="9.26" length="14.34" shape="150.89,594.56 150.85,594.85 148.60,598.60 144.85,600.85 139.60,601.60"/>
    </edge>
    <edge id=":B4_23" function="internal">
        <lane id=":B4_23_0" index="0" speed="3.65" length="3.23" shape="150.80,590.80 150.00,591.20 149.20,590.80 148.40,589.60"/>
    </edge>
    <edge id=":B4_15" function="internal">
        <lane id=":B4_15_0" index="0" speed="6.51" length="9.03" shape="139.60,595.20 142.05,594.85 143.80,593.80 144.85,592.05 145.20,589.60"/>
    </edge>
    <edge id=":B4_16" function="internal">
        <lane id=":B4_16_0" index="0" speed="13.89" length="20.80" shape="139.60,595.20 160.40,595.20"/>
        <lane id=":B4_16_1" index="1" speed="13.89" length="20.80" shape="139.60,598.40 160.40,598.40"/>
    </edge>